<?xml version="1.0" encoding="UTF-8"?>

<!-- generated on Fri May  8 12:59:10 2020 by Eclipse SUMO duarouter Version 1.5.0
<configuration xmlns:xsi="http://www.w3.org/2001/XMLSchema-instance" xsi:noNamespaceSchemaLocation="http://sumo.dlr.de/xsd/duarouterConfiguration.xsd">

    <input>
        <net-file value="two-way.net.xml"/>
        <route-files value="trips.trips.xml"/>
    </input>

    <output>
        <output-file value="confi3.rou.xml"/>
        <alternatives-output value="confi3.rou.alt.xml"/>
    </output>

    <report>
        <ignore-errors value="true"/>
    </report>

</configuration>
-->

<routes xmlns:xsi="http://www.w3.org/2001/XMLSchema-instance" xsi:noNamespaceSchemaLocation="http://sumo.dlr.de/xsd/routes_file.xsd">
    <vehicle id="0" depart="51.00">
        <route edges="e h"/>
    </vehicle>
    <vehicle id="1" depart="51.38">
        <route edges="e d"/>
    </vehicle>
    <vehicle id="2" depart="51.76">
        <route edges="c h"/>
    </vehicle>
    <vehicle id="3" depart="52.14">
        <route edges="c f gneE16"/>
    </vehicle>
    <vehicle id="4" depart="52.52">
        <route edges="a d"/>
    </vehicle>
    <vehicle id="5" depart="52.90">
        <route edges="f"/>
    </vehicle>
    <vehicle id="6" depart="53.28">
        <route edges="a f gneE16"/>
    </vehicle>
    <vehicle id="7" depart="53.66">
        <route edges="i e f"/>
    </vehicle>
    <vehicle id="8" depart="54.04">
        <route edges="i e d"/>
    </vehicle>
    <vehicle id="9" depart="54.42">
        <route edges="k j"/>
    </vehicle>
    <vehicle id="10" depart="54.80">
        <route edges="a h"/>
    </vehicle>
    <vehicle id="11" depart="55.18">
        <route edges="c f"/>
    </vehicle>
    <vehicle id="12" depart="55.56">
        <route edges="a f"/>
    </vehicle>
    <vehicle id="13" depart="55.94">
        <route edges="c f gneE16"/>
    </vehicle>
    <vehicle id="14" depart="56.32">
        <route edges="m j"/>
    </vehicle>
    <vehicle id="15" depart="56.70">
        <route edges="c f gneE16"/>
    </vehicle>
    <vehicle id="16" depart="57.08">
        <route edges="a f"/>
    </vehicle>
    <vehicle id="17" depart="57.46">
        <route edges="m e"/>
    </vehicle>
    <vehicle id="18" depart="57.84">
        <route edges="i j"/>
    </vehicle>
    <vehicle id="19" depart="58.22">
        <route edges="a f e"/>
    </vehicle>
    <vehicle id="20" depart="58.60">
        <route edges="f e d"/>
    </vehicle>
    <vehicle id="21" depart="58.98">
        <route edges="e f gneE16"/>
    </vehicle>
    <vehicle id="22" depart="59.36">
        <route edges="m e h"/>
    </vehicle>
    <vehicle id="23" depart="59.74">
        <route edges="k gneE16"/>
    </vehicle>
    <vehicle id="24" depart="60.12">
        <route edges="i j"/>
    </vehicle>
    <vehicle id="25" depart="60.50">
        <route edges="k l"/>
    </vehicle>
    <vehicle id="26" depart="60.88">
        <route edges="g d"/>
    </vehicle>
    <vehicle id="27" depart="61.26">
        <route edges="c b"/>
    </vehicle>
    <vehicle id="28" depart="61.64">
        <route edges="f e"/>
    </vehicle>
    <vehicle id="29" depart="62.02">
        <route edges="g d"/>
    </vehicle>
    <vehicle id="30" depart="62.40">
        <route edges="i e d"/>
    </vehicle>
    <vehicle id="31" depart="62.78">
        <route edges="e d"/>
    </vehicle>
    <vehicle id="32" depart="63.16">
        <route edges="m e f"/>
    </vehicle>
    <vehicle id="33" depart="63.54">
        <route edges="m e f"/>
    </vehicle>
    <vehicle id="34" depart="63.92">
        <route edges="f"/>
    </vehicle>
    <vehicle id="35" depart="64.30">
        <route edges="k e"/>
    </vehicle>
    <vehicle id="36" depart="64.68">
        <route edges="f e b"/>
    </vehicle>
    <vehicle id="37" depart="65.06">
        <route edges="i e h"/>
    </vehicle>
    <vehicle id="38" depart="65.44">
        <route edges="c f gneE16"/>
    </vehicle>
    <vehicle id="39" depart="65.82">
        <route edges="k j"/>
    </vehicle>
    <vehicle id="40" depart="66.20">
        <route edges="i l"/>
    </vehicle>
    <vehicle id="41" depart="66.58">
        <route edges="m e f"/>
    </vehicle>
    <vehicle id="42" depart="66.96">
        <route edges="e b"/>
    </vehicle>
    <vehicle id="43" depart="67.34">
        <route edges="k e f"/>
    </vehicle>
    <vehicle id="44" depart="67.72">
        <route edges="e f l"/>
    </vehicle>
    <vehicle id="45" depart="68.10">
        <route edges="c f j"/>
    </vehicle>
    <vehicle id="46" depart="68.48">
        <route edges="i e d"/>
    </vehicle>
    <vehicle id="47" depart="68.86">
        <route edges="g f j"/>
    </vehicle>
    <vehicle id="48" depart="69.24">
        <route edges="c f e"/>
    </vehicle>
    <vehicle id="49" depart="69.62">
        <route edges="g f gneE16"/>
    </vehicle>
    <vehicle id="50" depart="70.00">
        <route edges="i e d"/>
    </vehicle>
    <vehicle id="51" depart="70.38">
        <route edges="e b"/>
    </vehicle>
    <vehicle id="52" depart="70.76">
        <route edges="k e d"/>
    </vehicle>
    <vehicle id="53" depart="71.14">
        <route edges="g h"/>
    </vehicle>
    <vehicle id="54" depart="71.52">
        <route edges="a d"/>
    </vehicle>
    <vehicle id="55" depart="71.90">
        <route edges="k e b"/>
    </vehicle>
    <vehicle id="56" depart="72.28">
        <route edges="e d"/>
    </vehicle>
    <vehicle id="57" depart="72.66">
        <route edges="c f l"/>
    </vehicle>
    <vehicle id="58" depart="73.04">
        <route edges="k e d"/>
    </vehicle>
    <vehicle id="59" depart="73.42">
        <route edges="k e b"/>
    </vehicle>
    <vehicle id="60" depart="73.80">
        <route edges="m e"/>
    </vehicle>
    <vehicle id="61" depart="74.18">
        <route edges="m e"/>
    </vehicle>
    <vehicle id="62" depart="74.56">
        <route edges="a b"/>
    </vehicle>
    <vehicle id="63" depart="74.94">
        <route edges="c f j"/>
    </vehicle>
    <vehicle id="64" depart="75.32">
        <route edges="i l"/>
    </vehicle>
    <vehicle id="65" depart="75.70">
        <route edges="e h"/>
    </vehicle>
    <vehicle id="66" depart="76.08">
        <route edges="m l"/>
    </vehicle>
    <vehicle id="67" depart="76.46">
        <route edges="i e f"/>
    </vehicle>
    <vehicle id="68" depart="76.84">
        <route edges="f"/>
    </vehicle>
    <vehicle id="69" depart="77.22">
        <route edges="m l"/>
    </vehicle>
    <vehicle id="70" depart="77.60">
        <route edges="e h"/>
    </vehicle>
    <vehicle id="71" depart="77.98">
        <route edges="c f l"/>
    </vehicle>
    <vehicle id="72" depart="78.36">
        <route edges="g f l"/>
    </vehicle>
    <vehicle id="73" depart="78.74">
        <route edges="f l"/>
    </vehicle>
    <vehicle id="74" depart="79.12">
        <route edges="c f"/>
    </vehicle>
    <vehicle id="75" depart="79.50">
        <route edges="i e b"/>
    </vehicle>
    <vehicle id="76" depart="79.88">
        <route edges="i gneE16"/>
    </vehicle>
    <vehicle id="77" depart="80.26">
        <route edges="f e d"/>
    </vehicle>
    <vehicle id="78" depart="80.64">
        <route edges="c f gneE16"/>
    </vehicle>
    <vehicle id="79" depart="81.02">
        <route edges="i l"/>
    </vehicle>
    <vehicle id="80" depart="81.40">
        <route edges="a d"/>
    </vehicle>
    <vehicle id="81" depart="81.78">
        <route edges="e f gneE16"/>
    </vehicle>
    <vehicle id="82" depart="82.16">
        <route edges="m e"/>
    </vehicle>
    <vehicle id="83" depart="82.54">
        <route edges="f gneE16"/>
    </vehicle>
    <vehicle id="84" depart="82.92">
        <route edges="g d"/>
    </vehicle>
    <vehicle id="85" depart="83.30">
        <route edges="k e h"/>
    </vehicle>
    <vehicle id="86" depart="83.68">
        <route edges="e d"/>
    </vehicle>
    <vehicle id="87" depart="84.06">
        <route edges="m j"/>
    </vehicle>
    <vehicle id="88" depart="84.44">
        <route edges="m e d"/>
    </vehicle>
    <vehicle id="89" depart="84.82">
        <route edges="c f gneE16"/>
    </vehicle>
    <vehicle id="90" depart="85.20">
        <route edges="k e h"/>
    </vehicle>
    <vehicle id="91" depart="85.58">
        <route edges="e b"/>
    </vehicle>
    <vehicle id="92" depart="85.96">
        <route edges="g f gneE16"/>
    </vehicle>
    <vehicle id="93" depart="86.34">
        <route edges="f"/>
    </vehicle>
    <vehicle id="94" depart="86.72">
        <route edges="c h"/>
    </vehicle>
    <vehicle id="95" depart="87.10">
        <route edges="f l"/>
    </vehicle>
    <vehicle id="96" depart="87.48">
        <route edges="m e b"/>
    </vehicle>
    <vehicle id="97" depart="87.86">
        <route edges="a f j"/>
    </vehicle>
    <vehicle id="98" depart="88.24">
        <route edges="e h"/>
    </vehicle>
    <vehicle id="99" depart="88.62">
        <route edges="k l"/>
    </vehicle>
    <vehicle id="100" depart="89.00">
        <route edges="g f gneE16"/>
    </vehicle>
    <vehicle id="101" depart="89.38">
        <route edges="g f e"/>
    </vehicle>
    <vehicle id="102" depart="89.76">
        <route edges="f e d"/>
    </vehicle>
    <vehicle id="103" depart="90.14">
        <route edges="c f j"/>
    </vehicle>
    <vehicle id="104" depart="90.52">
        <route edges="a f gneE16"/>
    </vehicle>
    <vehicle id="105" depart="90.90">
        <route edges="a b"/>
    </vehicle>
    <vehicle id="106" depart="91.28">
        <route edges="c f e"/>
    </vehicle>
    <vehicle id="107" depart="91.66">
        <route edges="m e h"/>
    </vehicle>
    <vehicle id="108" depart="92.04">
        <route edges="e h"/>
    </vehicle>
    <vehicle id="109" depart="92.42">
        <route edges="m e b"/>
    </vehicle>
    <vehicle id="110" depart="92.80">
        <route edges="e f gneE16"/>
    </vehicle>
    <vehicle id="111" depart="93.18">
        <route edges="k gneE16"/>
    </vehicle>
    <vehicle id="112" depart="93.56">
        <route edges="g f e"/>
    </vehicle>
    <vehicle id="113" depart="93.94">
        <route edges="e d"/>
    </vehicle>
    <vehicle id="114" depart="94.32">
        <route edges="i e d"/>
    </vehicle>
    <vehicle id="115" depart="94.70">
        <route edges="f"/>
    </vehicle>
    <vehicle id="116" depart="95.08">
        <route edges="e d"/>
    </vehicle>
    <vehicle id="117" depart="95.46">
        <route edges="c f j"/>
    </vehicle>
    <vehicle id="118" depart="95.84">
        <route edges="m gneE16"/>
    </vehicle>
    <vehicle id="119" depart="96.22">
        <route edges="e d"/>
    </vehicle>
    <vehicle id="120" depart="96.60">
        <route edges="f e b"/>
    </vehicle>
    <vehicle id="121" depart="96.98">
        <route edges="g d"/>
    </vehicle>
    <vehicle id="122" depart="97.36">
        <route edges="f gneE16"/>
    </vehicle>
    <vehicle id="123" depart="97.74">
        <route edges="a f gneE16"/>
    </vehicle>
    <vehicle id="124" depart="98.12">
        <route edges="m j"/>
    </vehicle>
    <vehicle id="125" depart="98.50">
        <route edges="e f l"/>
    </vehicle>
    <vehicle id="126" depart="98.88">
        <route edges="c f l"/>
    </vehicle>
    <vehicle id="127" depart="99.26">
        <route edges="a f e"/>
    </vehicle>
    <vehicle id="128" depart="99.64">
        <route edges="k j"/>
    </vehicle>
    <vehicle id="129" depart="100.02">
        <route edges="f l"/>
    </vehicle>
    <vehicle id="130" depart="100.40">
        <route edges="f j"/>
    </vehicle>
    <vehicle id="131" depart="100.78">
        <route edges="e f j"/>
    </vehicle>
    <vehicle id="132" depart="101.16">
        <route edges="m l"/>
    </vehicle>
    <vehicle id="133" depart="101.54">
        <route edges="k e"/>
    </vehicle>
    <vehicle id="134" depart="101.92">
        <route edges="c f l"/>
    </vehicle>
    <vehicle id="135" depart="102.30">
        <route edges="i j"/>
    </vehicle>
    <vehicle id="136" depart="102.68">
        <route edges="g f j"/>
    </vehicle>
    <vehicle id="137" depart="103.06">
        <route edges="f e"/>
    </vehicle>
    <vehicle id="138" depart="103.44">
        <route edges="i e"/>
    </vehicle>
    <vehicle id="139" depart="103.82">
        <route edges="e"/>
    </vehicle>
    <vehicle id="140" depart="104.20">
        <route edges="k e b"/>
    </vehicle>
    <vehicle id="141" depart="104.58">
        <route edges="g f e"/>
    </vehicle>
    <vehicle id="142" depart="104.96">
        <route edges="k e h"/>
    </vehicle>
    <vehicle id="143" depart="105.34">
        <route edges="a f gneE16"/>
    </vehicle>
    <vehicle id="144" depart="105.72">
        <route edges="m j"/>
    </vehicle>
    <vehicle id="145" depart="106.10">
        <route edges="m e b"/>
    </vehicle>
    <vehicle id="146" depart="106.48">
        <route edges="a d"/>
    </vehicle>
    <vehicle id="147" depart="106.86">
        <route edges="c b"/>
    </vehicle>
    <vehicle id="148" depart="107.24">
        <route edges="e f gneE16"/>
    </vehicle>
    <vehicle id="149" depart="107.62">
        <route edges="c d"/>
    </vehicle>
    <vehicle id="150" depart="108.00">
        <route edges="g f"/>
    </vehicle>
    <vehicle id="151" depart="108.38">
        <route edges="a f e"/>
    </vehicle>
    <vehicle id="152" depart="108.76">
        <route edges="i l"/>
    </vehicle>
    <vehicle id="153" depart="109.14">
        <route edges="c f l"/>
    </vehicle>
    <vehicle id="154" depart="109.52">
        <route edges="f gneE16"/>
    </vehicle>
    <vehicle id="155" depart="109.90">
        <route edges="a f"/>
    </vehicle>
</routes>
