<?xml version="1.0" encoding="UTF-8"?>

<!-- generated on Fri May  8 13:00:41 2020 by Eclipse SUMO duarouter Version 1.5.0
<configuration xmlns:xsi="http://www.w3.org/2001/XMLSchema-instance" xsi:noNamespaceSchemaLocation="http://sumo.dlr.de/xsd/duarouterConfiguration.xsd">

    <input>
        <net-file value="two-way.net.xml"/>
        <route-files value="trips.trips.xml"/>
    </input>

    <output>
        <output-file value="confi4.rou.xml"/>
        <alternatives-output value="confi4.rou.alt.xml"/>
    </output>

    <report>
        <ignore-errors value="true"/>
    </report>

</configuration>
-->

<routes xmlns:xsi="http://www.w3.org/2001/XMLSchema-instance" xsi:noNamespaceSchemaLocation="http://sumo.dlr.de/xsd/routes_file.xsd">
    <vehicle id="0" depart="51.00">
        <route edges="f j"/>
    </vehicle>
    <vehicle id="1" depart="51.45">
        <route edges="k e h"/>
    </vehicle>
    <vehicle id="2" depart="51.90">
        <route edges="k e d"/>
    </vehicle>
    <vehicle id="3" depart="52.35">
        <route edges="c d"/>
    </vehicle>
    <vehicle id="4" depart="52.80">
        <route edges="k e h"/>
    </vehicle>
    <vehicle id="5" depart="53.25">
        <route edges="c f"/>
    </vehicle>
    <vehicle id="6" depart="53.70">
        <route edges="c f"/>
    </vehicle>
    <vehicle id="7" depart="54.15">
        <route edges="a d"/>
    </vehicle>
    <vehicle id="8" depart="54.60">
        <route edges="k l"/>
    </vehicle>
    <vehicle id="9" depart="55.05">
        <route edges="c f l"/>
    </vehicle>
    <vehicle id="10" depart="55.50">
        <route edges="c b"/>
    </vehicle>
    <vehicle id="11" depart="55.95">
        <route edges="g f e"/>
    </vehicle>
    <vehicle id="12" depart="56.40">
        <route edges="a f"/>
    </vehicle>
    <vehicle id="13" depart="56.85">
        <route edges="f e d"/>
    </vehicle>
    <vehicle id="14" depart="57.30">
        <route edges="e f"/>
    </vehicle>
    <vehicle id="15" depart="57.75">
        <route edges="k e d"/>
    </vehicle>
    <vehicle id="16" depart="58.20">
        <route edges="i e d"/>
    </vehicle>
    <vehicle id="17" depart="58.65">
        <route edges="c f l"/>
    </vehicle>
    <vehicle id="18" depart="59.10">
        <route edges="m l"/>
    </vehicle>
    <vehicle id="19" depart="59.55">
        <route edges="a h"/>
    </vehicle>
    <vehicle id="20" depart="60.00">
        <route edges="a f"/>
    </vehicle>
    <vehicle id="21" depart="60.45">
        <route edges="i e"/>
    </vehicle>
    <vehicle id="22" depart="60.90">
        <route edges="m l"/>
    </vehicle>
    <vehicle id="23" depart="61.35">
        <route edges="m e"/>
    </vehicle>
    <vehicle id="24" depart="61.80">
        <route edges="f j"/>
    </vehicle>
    <vehicle id="25" depart="62.25">
        <route edges="e d"/>
    </vehicle>
    <vehicle id="26" depart="62.70">
        <route edges="m e b"/>
    </vehicle>
    <vehicle id="27" depart="63.15">
        <route edges="i e b"/>
    </vehicle>
    <vehicle id="28" depart="63.60">
        <route edges="f e"/>
    </vehicle>
    <vehicle id="29" depart="64.05">
        <route edges="f j"/>
    </vehicle>
    <vehicle id="30" depart="64.50">
        <route edges="k gneE16"/>
    </vehicle>
    <vehicle id="31" depart="64.95">
        <route edges="f e d"/>
    </vehicle>
    <vehicle id="32" depart="65.40">
        <route edges="g f j"/>
    </vehicle>
    <vehicle id="33" depart="65.85">
        <route edges="g d"/>
    </vehicle>
    <vehicle id="34" depart="66.30">
        <route edges="c b"/>
    </vehicle>
    <vehicle id="35" depart="66.75">
        <route edges="k e f"/>
    </vehicle>
    <vehicle id="36" depart="67.20">
        <route edges="g f j"/>
    </vehicle>
    <vehicle id="37" depart="67.65">
        <route edges="c b"/>
    </vehicle>
    <vehicle id="38" depart="68.10">
        <route edges="f e h"/>
    </vehicle>
    <vehicle id="39" depart="68.55">
        <route edges="a f e"/>
    </vehicle>
    <vehicle id="40" depart="69.00">
        <route edges="f e b"/>
    </vehicle>
    <vehicle id="41" depart="69.45">
        <route edges="i j"/>
    </vehicle>
    <vehicle id="42" depart="69.90">
        <route edges="g d"/>
    </vehicle>
    <vehicle id="43" depart="70.35">
        <route edges="a h"/>
    </vehicle>
    <vehicle id="44" depart="70.80">
        <route edges="g f l"/>
    </vehicle>
    <vehicle id="45" depart="71.25">
        <route edges="g f e"/>
    </vehicle>
    <vehicle id="46" depart="71.70">
        <route edges="e f j"/>
    </vehicle>
    <vehicle id="47" depart="72.15">
        <route edges="e f l"/>
    </vehicle>
    <vehicle id="48" depart="72.60">
        <route edges="g h"/>
    </vehicle>
    <vehicle id="49" depart="73.05">
        <route edges="k e d"/>
    </vehicle>
    <vehicle id="50" depart="73.50">
        <route edges="f"/>
    </vehicle>
    <vehicle id="51" depart="73.95">
        <route edges="c f l"/>
    </vehicle>
    <vehicle id="52" depart="74.40">
        <route edges="g b"/>
    </vehicle>
    <vehicle id="53" depart="74.85">
        <route edges="i j"/>
    </vehicle>
    <vehicle id="54" depart="75.30">
        <route edges="e f gneE16"/>
    </vehicle>
    <vehicle id="55" depart="75.75">
        <route edges="k e h"/>
    </vehicle>
    <vehicle id="56" depart="76.20">
        <route edges="c d"/>
    </vehicle>
    <vehicle id="57" depart="76.65">
        <route edges="f e"/>
    </vehicle>
    <vehicle id="58" depart="77.10">
        <route edges="i j"/>
    </vehicle>
    <vehicle id="59" depart="77.55">
        <route edges="f"/>
    </vehicle>
    <vehicle id="60" depart="78.00">
        <route edges="i l"/>
    </vehicle>
    <vehicle id="61" depart="78.45">
        <route edges="e b"/>
    </vehicle>
    <vehicle id="62" depart="78.90">
        <route edges="k e h"/>
    </vehicle>
    <vehicle id="63" depart="79.35">
        <route edges="c f"/>
    </vehicle>
    <vehicle id="64" depart="79.80">
        <route edges="a d"/>
    </vehicle>
    <vehicle id="65" depart="80.25">
        <route edges="c d"/>
    </vehicle>
    <vehicle id="66" depart="80.70">
        <route edges="a f l"/>
    </vehicle>
    <vehicle id="67" depart="81.15">
        <route edges="a f l"/>
    </vehicle>
    <vehicle id="68" depart="81.60">
        <route edges="c f j"/>
    </vehicle>
    <vehicle id="69" depart="82.05">
        <route edges="g f j"/>
    </vehicle>
    <vehicle id="70" depart="82.50">
        <route edges="a f"/>
    </vehicle>
    <vehicle id="71" depart="82.95">
        <route edges="k gneE16"/>
    </vehicle>
    <vehicle id="72" depart="83.40">
        <route edges="a f gneE16"/>
    </vehicle>
    <vehicle id="73" depart="83.85">
        <route edges="c f"/>
    </vehicle>
    <vehicle id="74" depart="84.30">
        <route edges="m l"/>
    </vehicle>
    <vehicle id="75" depart="84.75">
        <route edges="e b"/>
    </vehicle>
    <vehicle id="76" depart="85.20">
        <route edges="c h"/>
    </vehicle>
    <vehicle id="77" depart="85.65">
        <route edges="m e b"/>
    </vehicle>
    <vehicle id="78" depart="86.10">
        <route edges="m e h"/>
    </vehicle>
    <vehicle id="79" depart="86.55">
        <route edges="f e h"/>
    </vehicle>
    <vehicle id="80" depart="87.00">
        <route edges="a f j"/>
    </vehicle>
    <vehicle id="81" depart="87.45">
        <route edges="k e b"/>
    </vehicle>
    <vehicle id="82" depart="87.90">
        <route edges="k e f"/>
    </vehicle>
    <vehicle id="83" depart="88.35">
        <route edges="e h"/>
    </vehicle>
    <vehicle id="84" depart="88.80">
        <route edges="m j"/>
    </vehicle>
    <vehicle id="85" depart="89.25">
        <route edges="m j"/>
    </vehicle>
    <vehicle id="86" depart="89.70">
        <route edges="m e b"/>
    </vehicle>
    <vehicle id="87" depart="90.15">
        <route edges="e f"/>
    </vehicle>
    <vehicle id="88" depart="90.60">
        <route edges="g f gneE16"/>
    </vehicle>
    <vehicle id="89" depart="91.05">
        <route edges="g b"/>
    </vehicle>
    <vehicle id="90" depart="91.50">
        <route edges="k j"/>
    </vehicle>
    <vehicle id="91" depart="91.95">
        <route edges="m e"/>
    </vehicle>
    <vehicle id="92" depart="92.40">
        <route edges="g f e"/>
    </vehicle>
    <vehicle id="93" depart="92.85">
        <route edges="m e d"/>
    </vehicle>
    <vehicle id="94" depart="93.30">
        <route edges="m j"/>
    </vehicle>
    <vehicle id="95" depart="93.75">
        <route edges="g f e"/>
    </vehicle>
    <vehicle id="96" depart="94.20">
        <route edges="g f l"/>
    </vehicle>
    <vehicle id="97" depart="94.65">
        <route edges="f"/>
    </vehicle>
    <vehicle id="98" depart="95.10">
        <route edges="k e b"/>
    </vehicle>
    <vehicle id="99" depart="95.55">
        <route edges="c f l"/>
    </vehicle>
    <vehicle id="100" depart="96.00">
        <route edges="a b"/>
    </vehicle>
    <vehicle id="101" depart="96.45">
        <route edges="k e"/>
    </vehicle>
    <vehicle id="102" depart="96.90">
        <route edges="i e"/>
    </vehicle>
    <vehicle id="103" depart="97.35">
        <route edges="c f e"/>
    </vehicle>
    <vehicle id="104" depart="97.80">
        <route edges="g d"/>
    </vehicle>
    <vehicle id="105" depart="98.25">
        <route edges="g f"/>
    </vehicle>
    <vehicle id="106" depart="98.70">
        <route edges="a d"/>
    </vehicle>
    <vehicle id="107" depart="99.15">
        <route edges="m l"/>
    </vehicle>
    <vehicle id="108" depart="99.60">
        <route edges="e f l"/>
    </vehicle>
    <vehicle id="109" depart="100.05">
        <route edges="g f e"/>
    </vehicle>
    <vehicle id="110" depart="100.50">
        <route edges="a f"/>
    </vehicle>
    <vehicle id="111" depart="100.95">
        <route edges="e"/>
    </vehicle>
    <vehicle id="112" depart="101.40">
        <route edges="i l"/>
    </vehicle>
    <vehicle id="113" depart="101.85">
        <route edges="e f l"/>
    </vehicle>
    <vehicle id="114" depart="102.30">
        <route edges="a f j"/>
    </vehicle>
    <vehicle id="115" depart="102.75">
        <route edges="f gneE16"/>
    </vehicle>
    <vehicle id="116" depart="103.20">
        <route edges="k j"/>
    </vehicle>
    <vehicle id="117" depart="103.65">
        <route edges="e h"/>
    </vehicle>
    <vehicle id="118" depart="104.10">
        <route edges="i e b"/>
    </vehicle>
    <vehicle id="119" depart="104.55">
        <route edges="g f gneE16"/>
    </vehicle>
    <vehicle id="120" depart="105.00">
        <route edges="c f j"/>
    </vehicle>
    <vehicle id="121" depart="105.45">
        <route edges="e h"/>
    </vehicle>
    <vehicle id="122" depart="105.90">
        <route edges="f l"/>
    </vehicle>
    <vehicle id="123" depart="106.35">
        <route edges="c f"/>
    </vehicle>
    <vehicle id="124" depart="106.80">
        <route edges="k gneE16"/>
    </vehicle>
    <vehicle id="125" depart="107.25">
        <route edges="k j"/>
    </vehicle>
    <vehicle id="126" depart="107.70">
        <route edges="k e h"/>
    </vehicle>
    <vehicle id="127" depart="108.15">
        <route edges="k j"/>
    </vehicle>
    <vehicle id="128" depart="108.60">
        <route edges="c f"/>
    </vehicle>
    <vehicle id="129" depart="109.05">
        <route edges="g f gneE16"/>
    </vehicle>
    <vehicle id="130" depart="109.50">
        <route edges="k gneE16"/>
    </vehicle>
    <vehicle id="131" depart="109.95">
        <route edges="a d"/>
    </vehicle>
</routes>
