<?xml version="1.0" encoding="UTF-8"?>

<!-- generated on Fri May  8 12:53:16 2020 by Eclipse SUMO duarouter Version 1.5.0
<configuration xmlns:xsi="http://www.w3.org/2001/XMLSchema-instance" xsi:noNamespaceSchemaLocation="http://sumo.dlr.de/xsd/duarouterConfiguration.xsd">

    <input>
        <net-file value="two-way.net.xml"/>
        <route-files value="trips.trips.xml"/>
    </input>

    <output>
        <output-file value="confi2.rou.xml"/>
        <alternatives-output value="confi2.rou.alt.xml"/>
    </output>

    <report>
        <ignore-errors value="true"/>
    </report>

</configuration>
-->

<routes xmlns:xsi="http://www.w3.org/2001/XMLSchema-instance" xsi:noNamespaceSchemaLocation="http://sumo.dlr.de/xsd/routes_file.xsd">
    <vehicle id="0" depart="0.00">
        <route edges="k e f"/>
    </vehicle>
    <vehicle id="1" depart="0.45">
        <route edges="g f e"/>
    </vehicle>
    <vehicle id="2" depart="0.90">
        <route edges="a f j"/>
    </vehicle>
    <vehicle id="3" depart="1.35">
        <route edges="m e h"/>
    </vehicle>
    <vehicle id="4" depart="1.80">
        <route edges="g h"/>
    </vehicle>
    <vehicle id="5" depart="2.25">
        <route edges="c b"/>
    </vehicle>
    <vehicle id="6" depart="2.70">
        <route edges="k e f"/>
    </vehicle>
    <vehicle id="7" depart="3.15">
        <route edges="m e d"/>
    </vehicle>
    <vehicle id="8" depart="3.60">
        <route edges="c f j"/>
    </vehicle>
    <vehicle id="9" depart="4.05">
        <route edges="c f gneE16"/>
    </vehicle>
    <vehicle id="10" depart="4.50">
        <route edges="i e"/>
    </vehicle>
    <vehicle id="11" depart="4.95">
        <route edges="g h"/>
    </vehicle>
    <vehicle id="12" depart="5.40">
        <route edges="e d"/>
    </vehicle>
    <vehicle id="13" depart="5.85">
        <route edges="f e b"/>
    </vehicle>
    <vehicle id="14" depart="6.30">
        <route edges="m e"/>
    </vehicle>
    <vehicle id="15" depart="6.75">
        <route edges="f e h"/>
    </vehicle>
    <vehicle id="16" depart="7.20">
        <route edges="i j"/>
    </vehicle>
    <vehicle id="17" depart="7.65">
        <route edges="c b"/>
    </vehicle>
    <vehicle id="18" depart="8.10">
        <route edges="c h"/>
    </vehicle>
    <vehicle id="19" depart="8.55">
        <route edges="m e h"/>
    </vehicle>
    <vehicle id="20" depart="9.00">
        <route edges="g f gneE16"/>
    </vehicle>
    <vehicle id="21" depart="9.45">
        <route edges="c f l"/>
    </vehicle>
    <vehicle id="22" depart="9.90">
        <route edges="g f l"/>
    </vehicle>
    <vehicle id="23" depart="10.35">
        <route edges="i e b"/>
    </vehicle>
    <vehicle id="24" depart="10.80">
        <route edges="k e"/>
    </vehicle>
    <vehicle id="25" depart="11.25">
        <route edges="k j"/>
    </vehicle>
    <vehicle id="26" depart="11.70">
        <route edges="c d"/>
    </vehicle>
    <vehicle id="27" depart="12.15">
        <route edges="f l"/>
    </vehicle>
    <vehicle id="28" depart="12.60">
        <route edges="g f"/>
    </vehicle>
    <vehicle id="29" depart="13.05">
        <route edges="c f l"/>
    </vehicle>
    <vehicle id="30" depart="13.50">
        <route edges="m gneE16"/>
    </vehicle>
    <vehicle id="31" depart="13.95">
        <route edges="e f j"/>
    </vehicle>
    <vehicle id="32" depart="14.40">
        <route edges="m e f"/>
    </vehicle>
    <vehicle id="33" depart="14.85">
        <route edges="e f"/>
    </vehicle>
    <vehicle id="34" depart="15.30">
        <route edges="g b"/>
    </vehicle>
    <vehicle id="35" depart="15.75">
        <route edges="c f"/>
    </vehicle>
    <vehicle id="36" depart="16.20">
        <route edges="e d"/>
    </vehicle>
    <vehicle id="37" depart="16.65">
        <route edges="m e d"/>
    </vehicle>
    <vehicle id="38" depart="17.10">
        <route edges="f e d"/>
    </vehicle>
    <vehicle id="39" depart="17.55">
        <route edges="e f l"/>
    </vehicle>
    <vehicle id="40" depart="18.00">
        <route edges="i e"/>
    </vehicle>
    <vehicle id="41" depart="18.45">
        <route edges="m gneE16"/>
    </vehicle>
    <vehicle id="42" depart="18.90">
        <route edges="g f e"/>
    </vehicle>
    <vehicle id="43" depart="19.35">
        <route edges="k e h"/>
    </vehicle>
    <vehicle id="44" depart="19.80">
        <route edges="e"/>
    </vehicle>
    <vehicle id="45" depart="20.25">
        <route edges="i e h"/>
    </vehicle>
    <vehicle id="46" depart="20.70">
        <route edges="k e f"/>
    </vehicle>
    <vehicle id="47" depart="21.15">
        <route edges="m e b"/>
    </vehicle>
    <vehicle id="48" depart="21.60">
        <route edges="f l"/>
    </vehicle>
    <vehicle id="49" depart="22.05">
        <route edges="k j"/>
    </vehicle>
    <vehicle id="50" depart="22.50">
        <route edges="m gneE16"/>
    </vehicle>
    <vehicle id="51" depart="22.95">
        <route edges="g h"/>
    </vehicle>
    <vehicle id="52" depart="23.40">
        <route edges="a f l"/>
    </vehicle>
    <vehicle id="53" depart="23.85">
        <route edges="g b"/>
    </vehicle>
    <vehicle id="54" depart="24.30">
        <route edges="f e b"/>
    </vehicle>
    <vehicle id="55" depart="24.75">
        <route edges="i j"/>
    </vehicle>
    <vehicle id="56" depart="25.20">
        <route edges="i e b"/>
    </vehicle>
    <vehicle id="57" depart="25.65">
        <route edges="m gneE16"/>
    </vehicle>
    <vehicle id="58" depart="26.10">
        <route edges="f l"/>
    </vehicle>
    <vehicle id="59" depart="26.55">
        <route edges="g f gneE16"/>
    </vehicle>
    <vehicle id="60" depart="27.00">
        <route edges="m e f"/>
    </vehicle>
    <vehicle id="61" depart="27.45">
        <route edges="i e d"/>
    </vehicle>
    <vehicle id="62" depart="27.90">
        <route edges="g f e"/>
    </vehicle>
    <vehicle id="63" depart="28.35">
        <route edges="g h"/>
    </vehicle>
    <vehicle id="64" depart="28.80">
        <route edges="a f j"/>
    </vehicle>
    <vehicle id="65" depart="29.25">
        <route edges="f"/>
    </vehicle>
    <vehicle id="66" depart="29.70">
        <route edges="e f l"/>
    </vehicle>
    <vehicle id="67" depart="30.15">
        <route edges="g f j"/>
    </vehicle>
    <vehicle id="68" depart="30.60">
        <route edges="m e d"/>
    </vehicle>
    <vehicle id="69" depart="31.05">
        <route edges="g f"/>
    </vehicle>
    <vehicle id="70" depart="31.50">
        <route edges="m gneE16"/>
    </vehicle>
    <vehicle id="71" depart="31.95">
        <route edges="f gneE16"/>
    </vehicle>
    <vehicle id="72" depart="32.40">
        <route edges="m e b"/>
    </vehicle>
    <vehicle id="73" depart="32.85">
        <route edges="m gneE16"/>
    </vehicle>
    <vehicle id="74" depart="33.30">
        <route edges="k l"/>
    </vehicle>
    <vehicle id="75" depart="33.75">
        <route edges="m l"/>
    </vehicle>
    <vehicle id="76" depart="34.20">
        <route edges="e f gneE16"/>
    </vehicle>
    <vehicle id="77" depart="34.65">
        <route edges="f e h"/>
    </vehicle>
    <vehicle id="78" depart="35.10">
        <route edges="k e h"/>
    </vehicle>
    <vehicle id="79" depart="35.55">
        <route edges="m e f"/>
    </vehicle>
    <vehicle id="80" depart="36.00">
        <route edges="a f j"/>
    </vehicle>
    <vehicle id="81" depart="36.45">
        <route edges="m l"/>
    </vehicle>
    <vehicle id="82" depart="36.90">
        <route edges="a h"/>
    </vehicle>
    <vehicle id="83" depart="37.35">
        <route edges="c h"/>
    </vehicle>
    <vehicle id="84" depart="37.80">
        <route edges="i l"/>
    </vehicle>
    <vehicle id="85" depart="38.25">
        <route edges="e"/>
    </vehicle>
    <vehicle id="86" depart="38.70">
        <route edges="a f j"/>
    </vehicle>
    <vehicle id="87" depart="39.15">
        <route edges="i e f"/>
    </vehicle>
    <vehicle id="88" depart="39.60">
        <route edges="e d"/>
    </vehicle>
    <vehicle id="89" depart="40.05">
        <route edges="g b"/>
    </vehicle>
    <vehicle id="90" depart="40.50">
        <route edges="e f gneE16"/>
    </vehicle>
    <vehicle id="91" depart="40.95">
        <route edges="f e"/>
    </vehicle>
    <vehicle id="92" depart="41.40">
        <route edges="c f l"/>
    </vehicle>
    <vehicle id="93" depart="41.85">
        <route edges="c f gneE16"/>
    </vehicle>
    <vehicle id="94" depart="42.30">
        <route edges="k e h"/>
    </vehicle>
    <vehicle id="95" depart="42.75">
        <route edges="e h"/>
    </vehicle>
    <vehicle id="96" depart="43.20">
        <route edges="m e f"/>
    </vehicle>
    <vehicle id="97" depart="43.65">
        <route edges="g b"/>
    </vehicle>
    <vehicle id="98" depart="44.10">
        <route edges="m l"/>
    </vehicle>
    <vehicle id="99" depart="44.55">
        <route edges="g f l"/>
    </vehicle>
    <vehicle id="100" depart="45.00">
        <route edges="m e h"/>
    </vehicle>
    <vehicle id="101" depart="45.45">
        <route edges="c d"/>
    </vehicle>
    <vehicle id="102" depart="45.90">
        <route edges="m e"/>
    </vehicle>
    <vehicle id="103" depart="46.35">
        <route edges="k j"/>
    </vehicle>
    <vehicle id="104" depart="46.80">
        <route edges="g f gneE16"/>
    </vehicle>
    <vehicle id="105" depart="47.25">
        <route edges="a f l"/>
    </vehicle>
    <vehicle id="106" depart="47.70">
        <route edges="c f j"/>
    </vehicle>
    <vehicle id="107" depart="48.15">
        <route edges="k e h"/>
    </vehicle>
    <vehicle id="108" depart="48.60">
        <route edges="a b"/>
    </vehicle>
    <vehicle id="109" depart="49.05">
        <route edges="g f l"/>
    </vehicle>
    <vehicle id="110" depart="49.50">
        <route edges="e f j"/>
    </vehicle>
    <vehicle id="111" depart="49.95">
        <route edges="a f e"/>
    </vehicle>
</routes>
