<?xml version="1.0" encoding="UTF-8"?>

<!-- generated on Fri May  8 12:46:48 2020 by Eclipse SUMO duarouter Version 1.5.0
<configuration xmlns:xsi="http://www.w3.org/2001/XMLSchema-instance" xsi:noNamespaceSchemaLocation="http://sumo.dlr.de/xsd/duarouterConfiguration.xsd">

    <input>
        <net-file value="two-way.net.xml"/>
        <route-files value="trips.trips.xml"/>
    </input>

    <output>
        <output-file value="rou1.rou.xml"/>
        <alternatives-output value="rou1.rou.alt.xml"/>
    </output>

    <report>
        <ignore-errors value="true"/>
    </report>

</configuration>
-->

<routes xmlns:xsi="http://www.w3.org/2001/XMLSchema-instance" xsi:noNamespaceSchemaLocation="http://sumo.dlr.de/xsd/routes_file.xsd">
    <vehicle id="0" depart="0.00">
        <route edges="m e f"/>
    </vehicle>
    <vehicle id="1" depart="0.38">
        <route edges="g f l"/>
    </vehicle>
    <vehicle id="2" depart="0.76">
        <route edges="e f j"/>
    </vehicle>
    <vehicle id="3" depart="1.14">
        <route edges="c f j"/>
    </vehicle>
    <vehicle id="4" depart="1.52">
        <route edges="f l"/>
    </vehicle>
    <vehicle id="5" depart="1.90">
        <route edges="f l"/>
    </vehicle>
    <vehicle id="6" depart="2.28">
        <route edges="c f e"/>
    </vehicle>
    <vehicle id="7" depart="2.66">
        <route edges="g f gneE16"/>
    </vehicle>
    <vehicle id="8" depart="3.04">
        <route edges="c d"/>
    </vehicle>
    <vehicle id="9" depart="3.42">
        <route edges="e f j"/>
    </vehicle>
    <vehicle id="10" depart="3.80">
        <route edges="i e b"/>
    </vehicle>
    <vehicle id="11" depart="4.18">
        <route edges="i j"/>
    </vehicle>
    <vehicle id="12" depart="4.56">
        <route edges="c f e"/>
    </vehicle>
    <vehicle id="13" depart="4.94">
        <route edges="c h"/>
    </vehicle>
    <vehicle id="14" depart="5.32">
        <route edges="c f j"/>
    </vehicle>
    <vehicle id="15" depart="5.70">
        <route edges="e f j"/>
    </vehicle>
    <vehicle id="16" depart="6.08">
        <route edges="k e d"/>
    </vehicle>
    <vehicle id="17" depart="6.46">
        <route edges="f e h"/>
    </vehicle>
    <vehicle id="18" depart="6.84">
        <route edges="a b"/>
    </vehicle>
    <vehicle id="19" depart="7.22">
        <route edges="i e d"/>
    </vehicle>
    <vehicle id="20" depart="7.60">
        <route edges="i l"/>
    </vehicle>
    <vehicle id="21" depart="7.98">
        <route edges="c h"/>
    </vehicle>
    <vehicle id="22" depart="8.36">
        <route edges="k e h"/>
    </vehicle>
    <vehicle id="23" depart="8.74">
        <route edges="e f j"/>
    </vehicle>
    <vehicle id="24" depart="9.12">
        <route edges="k e b"/>
    </vehicle>
    <vehicle id="25" depart="9.50">
        <route edges="g d"/>
    </vehicle>
    <vehicle id="26" depart="9.88">
        <route edges="e b"/>
    </vehicle>
    <vehicle id="27" depart="10.26">
        <route edges="i e h"/>
    </vehicle>
    <vehicle id="28" depart="10.64">
        <route edges="f e h"/>
    </vehicle>
    <vehicle id="29" depart="11.02">
        <route edges="k e b"/>
    </vehicle>
    <vehicle id="30" depart="11.40">
        <route edges="k gneE16"/>
    </vehicle>
    <vehicle id="31" depart="11.78">
        <route edges="f e b"/>
    </vehicle>
    <vehicle id="32" depart="12.16">
        <route edges="c f j"/>
    </vehicle>
    <vehicle id="33" depart="12.54">
        <route edges="c h"/>
    </vehicle>
    <vehicle id="34" depart="12.92">
        <route edges="g d"/>
    </vehicle>
    <vehicle id="35" depart="13.30">
        <route edges="c h"/>
    </vehicle>
    <vehicle id="36" depart="13.68">
        <route edges="m e b"/>
    </vehicle>
    <vehicle id="37" depart="14.06">
        <route edges="i e h"/>
    </vehicle>
    <vehicle id="38" depart="14.44">
        <route edges="e d"/>
    </vehicle>
    <vehicle id="39" depart="14.82">
        <route edges="e f l"/>
    </vehicle>
    <vehicle id="40" depart="15.20">
        <route edges="e"/>
    </vehicle>
    <vehicle id="41" depart="15.58">
        <route edges="g f e"/>
    </vehicle>
    <vehicle id="42" depart="15.96">
        <route edges="i e d"/>
    </vehicle>
    <vehicle id="43" depart="16.34">
        <route edges="a d"/>
    </vehicle>
    <vehicle id="44" depart="16.72">
        <route edges="g f e"/>
    </vehicle>
    <vehicle id="45" depart="17.10">
        <route edges="e b"/>
    </vehicle>
    <vehicle id="46" depart="17.48">
        <route edges="c d"/>
    </vehicle>
    <vehicle id="47" depart="17.86">
        <route edges="i gneE16"/>
    </vehicle>
    <vehicle id="48" depart="18.24">
        <route edges="i e f"/>
    </vehicle>
    <vehicle id="49" depart="18.62">
        <route edges="m e h"/>
    </vehicle>
    <vehicle id="50" depart="19.00">
        <route edges="e f l"/>
    </vehicle>
    <vehicle id="51" depart="19.38">
        <route edges="e b"/>
    </vehicle>
    <vehicle id="52" depart="19.76">
        <route edges="k e b"/>
    </vehicle>
    <vehicle id="53" depart="20.14">
        <route edges="e d"/>
    </vehicle>
    <vehicle id="54" depart="20.52">
        <route edges="i l"/>
    </vehicle>
    <vehicle id="55" depart="20.90">
        <route edges="g f e"/>
    </vehicle>
    <vehicle id="56" depart="21.28">
        <route edges="c f"/>
    </vehicle>
    <vehicle id="57" depart="21.66">
        <route edges="g f j"/>
    </vehicle>
    <vehicle id="58" depart="22.04">
        <route edges="i e b"/>
    </vehicle>
    <vehicle id="59" depart="22.42">
        <route edges="a h"/>
    </vehicle>
    <vehicle id="60" depart="22.80">
        <route edges="f e b"/>
    </vehicle>
    <vehicle id="61" depart="23.18">
        <route edges="k j"/>
    </vehicle>
    <vehicle id="62" depart="23.56">
        <route edges="k j"/>
    </vehicle>
    <vehicle id="63" depart="23.94">
        <route edges="a f gneE16"/>
    </vehicle>
    <vehicle id="64" depart="24.32">
        <route edges="e h"/>
    </vehicle>
    <vehicle id="65" depart="24.70">
        <route edges="e"/>
    </vehicle>
    <vehicle id="66" depart="25.08">
        <route edges="a h"/>
    </vehicle>
    <vehicle id="67" depart="25.46">
        <route edges="a h"/>
    </vehicle>
    <vehicle id="68" depart="25.84">
        <route edges="c b"/>
    </vehicle>
    <vehicle id="69" depart="26.22">
        <route edges="f e"/>
    </vehicle>
    <vehicle id="70" depart="26.60">
        <route edges="a f gneE16"/>
    </vehicle>
    <vehicle id="71" depart="26.98">
        <route edges="k j"/>
    </vehicle>
    <vehicle id="72" depart="27.36">
        <route edges="i e b"/>
    </vehicle>
    <vehicle id="73" depart="27.74">
        <route edges="c f"/>
    </vehicle>
    <vehicle id="74" depart="28.12">
        <route edges="m e b"/>
    </vehicle>
    <vehicle id="75" depart="28.50">
        <route edges="a f e"/>
    </vehicle>
    <vehicle id="76" depart="28.88">
        <route edges="f j"/>
    </vehicle>
    <vehicle id="77" depart="29.26">
        <route edges="e f l"/>
    </vehicle>
    <vehicle id="78" depart="29.64">
        <route edges="c f l"/>
    </vehicle>
    <vehicle id="79" depart="30.02">
        <route edges="g f l"/>
    </vehicle>
    <vehicle id="80" depart="30.40">
        <route edges="m gneE16"/>
    </vehicle>
    <vehicle id="81" depart="30.78">
        <route edges="f e d"/>
    </vehicle>
    <vehicle id="82" depart="31.16">
        <route edges="a f"/>
    </vehicle>
    <vehicle id="83" depart="31.54">
        <route edges="c f"/>
    </vehicle>
    <vehicle id="84" depart="31.92">
        <route edges="k l"/>
    </vehicle>
    <vehicle id="85" depart="32.30">
        <route edges="m e d"/>
    </vehicle>
    <vehicle id="86" depart="32.68">
        <route edges="k gneE16"/>
    </vehicle>
    <vehicle id="87" depart="33.06">
        <route edges="m l"/>
    </vehicle>
    <vehicle id="88" depart="33.44">
        <route edges="e f gneE16"/>
    </vehicle>
    <vehicle id="89" depart="33.82">
        <route edges="g b"/>
    </vehicle>
    <vehicle id="90" depart="34.20">
        <route edges="g b"/>
    </vehicle>
    <vehicle id="91" depart="34.58">
        <route edges="f gneE16"/>
    </vehicle>
    <vehicle id="92" depart="34.96">
        <route edges="f e h"/>
    </vehicle>
    <vehicle id="93" depart="35.34">
        <route edges="i e h"/>
    </vehicle>
    <vehicle id="94" depart="35.72">
        <route edges="k e f"/>
    </vehicle>
    <vehicle id="95" depart="36.10">
        <route edges="e f gneE16"/>
    </vehicle>
    <vehicle id="96" depart="36.48">
        <route edges="e f l"/>
    </vehicle>
    <vehicle id="97" depart="36.86">
        <route edges="i e b"/>
    </vehicle>
    <vehicle id="98" depart="37.24">
        <route edges="f gneE16"/>
    </vehicle>
    <vehicle id="99" depart="37.62">
        <route edges="f e d"/>
    </vehicle>
    <vehicle id="100" depart="38.00">
        <route edges="a f j"/>
    </vehicle>
    <vehicle id="101" depart="38.38">
        <route edges="e"/>
    </vehicle>
    <vehicle id="102" depart="38.76">
        <route edges="i e b"/>
    </vehicle>
    <vehicle id="103" depart="39.14">
        <route edges="i e h"/>
    </vehicle>
    <vehicle id="104" depart="39.52">
        <route edges="k j"/>
    </vehicle>
    <vehicle id="105" depart="39.90">
        <route edges="e f gneE16"/>
    </vehicle>
    <vehicle id="106" depart="40.28">
        <route edges="e b"/>
    </vehicle>
    <vehicle id="107" depart="40.66">
        <route edges="e h"/>
    </vehicle>
    <vehicle id="108" depart="41.04">
        <route edges="i j"/>
    </vehicle>
    <vehicle id="109" depart="41.42">
        <route edges="c f j"/>
    </vehicle>
    <vehicle id="110" depart="41.80">
        <route edges="e h"/>
    </vehicle>
    <vehicle id="111" depart="42.18">
        <route edges="m e b"/>
    </vehicle>
    <vehicle id="112" depart="42.56">
        <route edges="m e d"/>
    </vehicle>
    <vehicle id="113" depart="42.94">
        <route edges="e b"/>
    </vehicle>
    <vehicle id="114" depart="43.32">
        <route edges="i j"/>
    </vehicle>
    <vehicle id="115" depart="43.70">
        <route edges="g b"/>
    </vehicle>
    <vehicle id="116" depart="44.08">
        <route edges="k j"/>
    </vehicle>
    <vehicle id="117" depart="44.46">
        <route edges="c h"/>
    </vehicle>
    <vehicle id="118" depart="44.84">
        <route edges="i gneE16"/>
    </vehicle>
    <vehicle id="119" depart="45.22">
        <route edges="g f l"/>
    </vehicle>
    <vehicle id="120" depart="45.60">
        <route edges="i e f"/>
    </vehicle>
    <vehicle id="121" depart="45.98">
        <route edges="f gneE16"/>
    </vehicle>
    <vehicle id="122" depart="46.36">
        <route edges="a f gneE16"/>
    </vehicle>
    <vehicle id="123" depart="46.74">
        <route edges="f l"/>
    </vehicle>
    <vehicle id="124" depart="47.12">
        <route edges="f"/>
    </vehicle>
    <vehicle id="125" depart="47.50">
        <route edges="c d"/>
    </vehicle>
    <vehicle id="126" depart="47.88">
        <route edges="a f gneE16"/>
    </vehicle>
    <vehicle id="127" depart="48.26">
        <route edges="e h"/>
    </vehicle>
    <vehicle id="128" depart="48.64">
        <route edges="k gneE16"/>
    </vehicle>
    <vehicle id="129" depart="49.02">
        <route edges="c f e"/>
    </vehicle>
    <vehicle id="130" depart="49.40">
        <route edges="a f l"/>
    </vehicle>
    <vehicle id="131" depart="49.78">
        <route edges="e h"/>
    </vehicle>
</routes>
