<?xml version="1.0" encoding="UTF-8"?>
<!-- generated on 2020-05-08 12:45:48.170129 by randomTrips.py v1_5_0+1260-e3eb1ed826
  options: -n two-way.net.xml -b 0 -e 50 -p 0.38
-->
<routes xmlns:xsi="http://www.w3.org/2001/XMLSchema-instance" xsi:noNamespaceSchemaLocation="http://sumo.dlr.de/xsd/routes_file.xsd">
    <trip id="0" depart="0.00" from="m" to="f"/>
    <trip id="1" depart="0.38" from="g" to="l"/>
    <trip id="2" depart="0.76" from="e" to="j"/>
    <trip id="3" depart="1.14" from="c" to="j"/>
    <trip id="4" depart="1.52" from="f" to="l"/>
    <trip id="5" depart="1.90" from="f" to="l"/>
    <trip id="6" depart="2.28" from="c" to="e"/>
    <trip id="7" depart="2.66" from="g" to="gneE16"/>
    <trip id="8" depart="3.04" from="c" to="d"/>
    <trip id="9" depart="3.42" from="e" to="j"/>
    <trip id="10" depart="3.80" from="i" to="b"/>
    <trip id="11" depart="4.18" from="i" to="j"/>
    <trip id="12" depart="4.56" from="c" to="e"/>
    <trip id="13" depart="4.94" from="c" to="h"/>
    <trip id="14" depart="5.32" from="c" to="j"/>
    <trip id="15" depart="5.70" from="e" to="j"/>
    <trip id="16" depart="6.08" from="k" to="d"/>
    <trip id="17" depart="6.46" from="f" to="h"/>
    <trip id="18" depart="6.84" from="a" to="b"/>
    <trip id="19" depart="7.22" from="i" to="d"/>
    <trip id="20" depart="7.60" from="i" to="l"/>
    <trip id="21" depart="7.98" from="c" to="h"/>
    <trip id="22" depart="8.36" from="k" to="h"/>
    <trip id="23" depart="8.74" from="e" to="j"/>
    <trip id="24" depart="9.12" from="k" to="b"/>
    <trip id="25" depart="9.50" from="g" to="d"/>
    <trip id="26" depart="9.88" from="e" to="b"/>
    <trip id="27" depart="10.26" from="i" to="h"/>
    <trip id="28" depart="10.64" from="f" to="h"/>
    <trip id="29" depart="11.02" from="k" to="b"/>
    <trip id="30" depart="11.40" from="k" to="gneE16"/>
    <trip id="31" depart="11.78" from="f" to="b"/>
    <trip id="32" depart="12.16" from="c" to="j"/>
    <trip id="33" depart="12.54" from="c" to="h"/>
    <trip id="34" depart="12.92" from="g" to="d"/>
    <trip id="35" depart="13.30" from="c" to="h"/>
    <trip id="36" depart="13.68" from="m" to="b"/>
    <trip id="37" depart="14.06" from="i" to="h"/>
    <trip id="38" depart="14.44" from="e" to="d"/>
    <trip id="39" depart="14.82" from="e" to="l"/>
    <trip id="40" depart="15.20" from="e" to="e"/>
    <trip id="41" depart="15.58" from="g" to="e"/>
    <trip id="42" depart="15.96" from="i" to="d"/>
    <trip id="43" depart="16.34" from="a" to="d"/>
    <trip id="44" depart="16.72" from="g" to="e"/>
    <trip id="45" depart="17.10" from="e" to="b"/>
    <trip id="46" depart="17.48" from="c" to="d"/>
    <trip id="47" depart="17.86" from="i" to="gneE16"/>
    <trip id="48" depart="18.24" from="i" to="f"/>
    <trip id="49" depart="18.62" from="m" to="h"/>
    <trip id="50" depart="19.00" from="e" to="l"/>
    <trip id="51" depart="19.38" from="e" to="b"/>
    <trip id="52" depart="19.76" from="k" to="b"/>
    <trip id="53" depart="20.14" from="e" to="d"/>
    <trip id="54" depart="20.52" from="i" to="l"/>
    <trip id="55" depart="20.90" from="g" to="e"/>
    <trip id="56" depart="21.28" from="c" to="f"/>
    <trip id="57" depart="21.66" from="g" to="j"/>
    <trip id="58" depart="22.04" from="i" to="b"/>
    <trip id="59" depart="22.42" from="a" to="h"/>
    <trip id="60" depart="22.80" from="f" to="b"/>
    <trip id="61" depart="23.18" from="k" to="j"/>
    <trip id="62" depart="23.56" from="k" to="j"/>
    <trip id="63" depart="23.94" from="a" to="gneE16"/>
    <trip id="64" depart="24.32" from="e" to="h"/>
    <trip id="65" depart="24.70" from="e" to="e"/>
    <trip id="66" depart="25.08" from="a" to="h"/>
    <trip id="67" depart="25.46" from="a" to="h"/>
    <trip id="68" depart="25.84" from="c" to="b"/>
    <trip id="69" depart="26.22" from="f" to="e"/>
    <trip id="70" depart="26.60" from="a" to="gneE16"/>
    <trip id="71" depart="26.98" from="k" to="j"/>
    <trip id="72" depart="27.36" from="i" to="b"/>
    <trip id="73" depart="27.74" from="c" to="f"/>
    <trip id="74" depart="28.12" from="m" to="b"/>
    <trip id="75" depart="28.50" from="a" to="e"/>
    <trip id="76" depart="28.88" from="f" to="j"/>
    <trip id="77" depart="29.26" from="e" to="l"/>
    <trip id="78" depart="29.64" from="c" to="l"/>
    <trip id="79" depart="30.02" from="g" to="l"/>
    <trip id="80" depart="30.40" from="m" to="gneE16"/>
    <trip id="81" depart="30.78" from="f" to="d"/>
    <trip id="82" depart="31.16" from="a" to="f"/>
    <trip id="83" depart="31.54" from="c" to="f"/>
    <trip id="84" depart="31.92" from="k" to="l"/>
    <trip id="85" depart="32.30" from="m" to="d"/>
    <trip id="86" depart="32.68" from="k" to="gneE16"/>
    <trip id="87" depart="33.06" from="m" to="l"/>
    <trip id="88" depart="33.44" from="e" to="gneE16"/>
    <trip id="89" depart="33.82" from="g" to="b"/>
    <trip id="90" depart="34.20" from="g" to="b"/>
    <trip id="91" depart="34.58" from="f" to="gneE16"/>
    <trip id="92" depart="34.96" from="f" to="h"/>
    <trip id="93" depart="35.34" from="i" to="h"/>
    <trip id="94" depart="35.72" from="k" to="f"/>
    <trip id="95" depart="36.10" from="e" to="gneE16"/>
    <trip id="96" depart="36.48" from="e" to="l"/>
    <trip id="97" depart="36.86" from="i" to="b"/>
    <trip id="98" depart="37.24" from="f" to="gneE16"/>
    <trip id="99" depart="37.62" from="f" to="d"/>
    <trip id="100" depart="38.00" from="a" to="j"/>
    <trip id="101" depart="38.38" from="e" to="e"/>
    <trip id="102" depart="38.76" from="i" to="b"/>
    <trip id="103" depart="39.14" from="i" to="h"/>
    <trip id="104" depart="39.52" from="k" to="j"/>
    <trip id="105" depart="39.90" from="e" to="gneE16"/>
    <trip id="106" depart="40.28" from="e" to="b"/>
    <trip id="107" depart="40.66" from="e" to="h"/>
    <trip id="108" depart="41.04" from="i" to="j"/>
    <trip id="109" depart="41.42" from="c" to="j"/>
    <trip id="110" depart="41.80" from="e" to="h"/>
    <trip id="111" depart="42.18" from="m" to="b"/>
    <trip id="112" depart="42.56" from="m" to="d"/>
    <trip id="113" depart="42.94" from="e" to="b"/>
    <trip id="114" depart="43.32" from="i" to="j"/>
    <trip id="115" depart="43.70" from="g" to="b"/>
    <trip id="116" depart="44.08" from="k" to="j"/>
    <trip id="117" depart="44.46" from="c" to="h"/>
    <trip id="118" depart="44.84" from="i" to="gneE16"/>
    <trip id="119" depart="45.22" from="g" to="l"/>
    <trip id="120" depart="45.60" from="i" to="f"/>
    <trip id="121" depart="45.98" from="f" to="gneE16"/>
    <trip id="122" depart="46.36" from="a" to="gneE16"/>
    <trip id="123" depart="46.74" from="f" to="l"/>
    <trip id="124" depart="47.12" from="f" to="f"/>
    <trip id="125" depart="47.50" from="c" to="d"/>
    <trip id="126" depart="47.88" from="a" to="gneE16"/>
    <trip id="127" depart="48.26" from="e" to="h"/>
    <trip id="128" depart="48.64" from="k" to="gneE16"/>
    <trip id="129" depart="49.02" from="c" to="e"/>
    <trip id="130" depart="49.40" from="a" to="l"/>
    <trip id="131" depart="49.78" from="e" to="h"/>
</routes>
