<?xml version="1.0" encoding="UTF-8"?>

<!-- generated on 04/11/20 09:22:20 by Eclipse SUMO netedit Version 1.5.0
<configuration xmlns:xsi="http://www.w3.org/2001/XMLSchema-instance" xsi:noNamespaceSchemaLocation="http://sumo.dlr.de/xsd/netconvertConfiguration.xsd">

    <input>
        <sumo-net-file value="C:\Users\reddy\Documents\j2\two-way.net.xml"/>
    </input>

    <output>
        <output-file value="C:\Users\reddy\Documents\j2\two-way.net.xml"/>
    </output>

    <processing>
        <geometry.min-radius.fix.railways value="false"/>
        <geometry.max-grade.fix value="false"/>
        <offset.disable-normalization value="true"/>
        <lefthand value="false"/>
    </processing>

    <junctions>
        <no-turnarounds value="true"/>
        <junctions.corner-detail value="5"/>
        <junctions.limit-turn-speed value="5.5"/>
        <rectangular-lane-cut value="false"/>
    </junctions>

    <pedestrian>
        <walkingareas value="false"/>
    </pedestrian>

    <report>
        <aggregate-warnings value="5"/>
    </report>

</configuration>
-->

<net version="1.3" junctionCornerDetail="5" limitTurnSpeed="5.50" xmlns:xsi="http://www.w3.org/2001/XMLSchema-instance" xsi:noNamespaceSchemaLocation="http://sumo.dlr.de/xsd/net_file.xsd">

    <location netOffset="0.00,0.00" convBoundary="600.00,0.00,2100.00,900.00" origBoundary="-10000000000.00,-10000000000.00,10000000000.00,10000000000.00" projParameter="!"/>

    <edge id=":1_0" function="internal">
        <lane id=":1_0_0" index="0" speed="6.51" length="9.03" shape="1092.00,413.60 1091.65,411.15 1090.60,409.40 1088.85,408.35 1086.40,408.00"/>
    </edge>
    <edge id=":1_1" function="internal">
        <lane id=":1_1_0" index="0" speed="13.89" length="27.20" shape="1095.20,413.60 1095.20,386.40"/>
    </edge>
    <edge id=":1_2" function="internal">
        <lane id=":1_2_0" index="0" speed="10.36" length="13.42" shape="1098.40,413.60 1099.35,406.95 1102.20,402.20 1103.20,401.60"/>
    </edge>
    <edge id=":1_3" function="internal">
        <lane id=":1_3_0" index="0" speed="3.65" length="2.34" shape="1098.40,413.60 1099.20,412.40 1100.00,412.00"/>
    </edge>
    <edge id=":1_16" function="internal">
        <lane id=":1_16_0" index="0" speed="10.36" length="11.09" shape="1103.20,401.60 1106.95,399.35 1113.60,398.40"/>
    </edge>
    <edge id=":1_17" function="internal">
        <lane id=":1_17_0" index="0" speed="3.65" length="2.34" shape="1100.00,412.00 1100.80,412.40 1101.60,413.60"/>
    </edge>
    <edge id=":1_4" function="internal">
        <lane id=":1_4_0" index="0" speed="6.51" length="9.03" shape="1113.60,408.00 1111.15,408.35 1109.40,409.40 1108.35,411.15 1108.00,413.60"/>
    </edge>
    <edge id=":1_5" function="internal">
        <lane id=":1_5_0" index="0" speed="13.89" length="27.20" shape="1113.60,404.80 1086.40,404.80"/>
    </edge>
    <edge id=":1_6" function="internal">
        <lane id=":1_6_0" index="0" speed="10.36" length="13.42" shape="1113.60,401.60 1106.95,400.65 1102.20,397.80 1101.60,396.80"/>
    </edge>
    <edge id=":1_7" function="internal">
        <lane id=":1_7_0" index="0" speed="3.65" length="2.34" shape="1113.60,401.60 1112.40,400.80 1112.00,400.00"/>
    </edge>
    <edge id=":1_18" function="internal">
        <lane id=":1_18_0" index="0" speed="10.36" length="11.09" shape="1101.60,396.80 1099.35,393.05 1098.40,386.40"/>
    </edge>
    <edge id=":1_19" function="internal">
        <lane id=":1_19_0" index="0" speed="3.65" length="2.34" shape="1112.00,400.00 1112.40,399.20 1113.60,398.40"/>
    </edge>
    <edge id=":1_8" function="internal">
        <lane id=":1_8_0" index="0" speed="6.51" length="9.03" shape="1108.00,386.40 1108.35,388.85 1109.40,390.60 1111.15,391.65 1113.60,392.00"/>
    </edge>
    <edge id=":1_9" function="internal">
        <lane id=":1_9_0" index="0" speed="13.89" length="27.20" shape="1104.80,386.40 1104.80,413.60"/>
    </edge>
    <edge id=":1_10" function="internal">
        <lane id=":1_10_0" index="0" speed="10.36" length="13.42" shape="1101.60,386.40 1100.65,393.05 1097.80,397.80 1096.80,398.40"/>
    </edge>
    <edge id=":1_11" function="internal">
        <lane id=":1_11_0" index="0" speed="3.65" length="2.34" shape="1101.60,386.40 1100.80,387.60 1100.00,388.00"/>
    </edge>
    <edge id=":1_20" function="internal">
        <lane id=":1_20_0" index="0" speed="10.36" length="11.09" shape="1096.80,398.40 1093.05,400.65 1086.40,401.60"/>
    </edge>
    <edge id=":1_21" function="internal">
        <lane id=":1_21_0" index="0" speed="3.65" length="2.34" shape="1100.00,388.00 1099.20,387.60 1098.40,386.40"/>
    </edge>
    <edge id=":1_12" function="internal">
        <lane id=":1_12_0" index="0" speed="6.51" length="9.03" shape="1086.40,392.00 1088.85,391.65 1090.60,390.60 1091.65,388.85 1092.00,386.40"/>
    </edge>
    <edge id=":1_13" function="internal">
        <lane id=":1_13_0" index="0" speed="13.89" length="27.20" shape="1086.40,395.20 1113.60,395.20"/>
    </edge>
    <edge id=":1_14" function="internal">
        <lane id=":1_14_0" index="0" speed="10.36" length="13.42" shape="1086.40,398.40 1093.05,399.35 1097.80,402.20 1098.40,403.20"/>
    </edge>
    <edge id=":1_15" function="internal">
        <lane id=":1_15_0" index="0" speed="3.65" length="2.34" shape="1086.40,398.40 1087.60,399.20 1088.00,400.00"/>
    </edge>
    <edge id=":1_22" function="internal">
        <lane id=":1_22_0" index="0" speed="10.36" length="11.09" shape="1098.40,403.20 1100.65,406.95 1101.60,413.60"/>
    </edge>
    <edge id=":1_23" function="internal">
        <lane id=":1_23_0" index="0" speed="3.65" length="2.34" shape="1088.00,400.00 1087.60,400.80 1086.40,401.60"/>
    </edge>
    <edge id=":2_0" function="internal">
        <lane id=":2_0_0" index="0" speed="6.51" length="9.03" shape="1592.00,413.60 1591.65,411.15 1590.60,409.40 1588.85,408.35 1586.40,408.00"/>
    </edge>
    <edge id=":2_1" function="internal">
        <lane id=":2_1_0" index="0" speed="13.89" length="27.20" shape="1595.20,413.60 1595.20,386.40"/>
    </edge>
    <edge id=":2_2" function="internal">
        <lane id=":2_2_0" index="0" speed="10.36" length="13.42" shape="1598.40,413.60 1599.35,406.95 1602.20,402.20 1603.20,401.60"/>
    </edge>
    <edge id=":2_3" function="internal">
        <lane id=":2_3_0" index="0" speed="3.65" length="2.34" shape="1598.40,413.60 1599.20,412.40 1600.00,412.00"/>
    </edge>
    <edge id=":2_16" function="internal">
        <lane id=":2_16_0" index="0" speed="10.36" length="11.09" shape="1603.20,401.60 1606.95,399.35 1613.60,398.40"/>
    </edge>
    <edge id=":2_17" function="internal">
        <lane id=":2_17_0" index="0" speed="3.65" length="2.34" shape="1600.00,412.00 1600.80,412.40 1601.60,413.60"/>
    </edge>
    <edge id=":2_4" function="internal">
        <lane id=":2_4_0" index="0" speed="6.51" length="9.03" shape="1613.60,408.00 1611.15,408.35 1609.40,409.40 1608.35,411.15 1608.00,413.60"/>
    </edge>
    <edge id=":2_5" function="internal">
        <lane id=":2_5_0" index="0" speed="13.89" length="27.20" shape="1613.60,404.80 1586.40,404.80"/>
    </edge>
    <edge id=":2_6" function="internal">
        <lane id=":2_6_0" index="0" speed="10.36" length="13.42" shape="1613.60,401.60 1606.95,400.65 1602.20,397.80 1601.60,396.80"/>
    </edge>
    <edge id=":2_7" function="internal">
        <lane id=":2_7_0" index="0" speed="3.65" length="2.34" shape="1613.60,401.60 1612.40,400.80 1612.00,400.00"/>
    </edge>
    <edge id=":2_18" function="internal">
        <lane id=":2_18_0" index="0" speed="10.36" length="11.09" shape="1601.60,396.80 1599.35,393.05 1598.40,386.40"/>
    </edge>
    <edge id=":2_19" function="internal">
        <lane id=":2_19_0" index="0" speed="3.65" length="2.34" shape="1612.00,400.00 1612.40,399.20 1613.60,398.40"/>
    </edge>
    <edge id=":2_8" function="internal">
        <lane id=":2_8_0" index="0" speed="6.51" length="9.03" shape="1608.00,386.40 1608.35,388.85 1609.40,390.60 1611.15,391.65 1613.60,392.00"/>
    </edge>
    <edge id=":2_9" function="internal">
        <lane id=":2_9_0" index="0" speed="13.89" length="27.20" shape="1604.80,386.40 1604.80,413.60"/>
    </edge>
    <edge id=":2_10" function="internal">
        <lane id=":2_10_0" index="0" speed="10.36" length="13.42" shape="1601.60,386.40 1600.65,393.05 1597.80,397.80 1596.80,398.40"/>
    </edge>
    <edge id=":2_11" function="internal">
        <lane id=":2_11_0" index="0" speed="3.65" length="2.34" shape="1601.60,386.40 1600.80,387.60 1600.00,388.00"/>
    </edge>
    <edge id=":2_20" function="internal">
        <lane id=":2_20_0" index="0" speed="10.36" length="11.09" shape="1596.80,398.40 1593.05,400.65 1586.40,401.60"/>
    </edge>
    <edge id=":2_21" function="internal">
        <lane id=":2_21_0" index="0" speed="3.65" length="2.34" shape="1600.00,388.00 1599.20,387.60 1598.40,386.40"/>
    </edge>
    <edge id=":2_12" function="internal">
        <lane id=":2_12_0" index="0" speed="6.51" length="9.03" shape="1586.40,392.00 1588.85,391.65 1590.60,390.60 1591.65,388.85 1592.00,386.40"/>
    </edge>
    <edge id=":2_13" function="internal">
        <lane id=":2_13_0" index="0" speed="13.89" length="27.20" shape="1586.40,395.20 1613.60,395.20"/>
    </edge>
    <edge id=":2_14" function="internal">
        <lane id=":2_14_0" index="0" speed="10.36" length="13.42" shape="1586.40,398.40 1593.05,399.35 1597.80,402.20 1598.40,403.20"/>
    </edge>
    <edge id=":2_15" function="internal">
        <lane id=":2_15_0" index="0" speed="3.65" length="2.34" shape="1586.40,398.40 1587.60,399.20 1588.00,400.00"/>
    </edge>
    <edge id=":2_22" function="internal">
        <lane id=":2_22_0" index="0" speed="10.36" length="11.09" shape="1598.40,403.20 1600.65,406.95 1601.60,413.60"/>
    </edge>
    <edge id=":2_23" function="internal">
        <lane id=":2_23_0" index="0" speed="3.65" length="2.34" shape="1588.00,400.00 1587.60,400.80 1586.40,401.60"/>
    </edge>

    <edge id="a" from="0" to="1" priority="-1">
        <lane id="a_0" index="0" speed="13.89" length="486.40" shape="600.00,392.00 1086.40,392.00"/>
        <lane id="a_1" index="1" speed="13.89" length="486.40" shape="600.00,395.20 1086.40,395.20"/>
        <lane id="a_2" index="2" speed="13.89" length="486.40" shape="600.00,398.40 1086.40,398.40"/>
    </edge>
    <edge id="b" from="1" to="0" priority="-1">
        <lane id="b_0" index="0" speed="13.89" length="486.40" shape="1086.40,408.00 600.00,408.00"/>
        <lane id="b_1" index="1" speed="13.89" length="486.40" shape="1086.40,404.80 600.00,404.80"/>
        <lane id="b_2" index="2" speed="13.89" length="486.40" shape="1086.40,401.60 600.00,401.60"/>
    </edge>
    <edge id="c" from="4" to="1" priority="-1">
        <lane id="c_0" index="0" speed="13.89" length="486.40" shape="1092.00,900.00 1092.00,413.60"/>
        <lane id="c_1" index="1" speed="13.89" length="486.40" shape="1095.20,900.00 1095.20,413.60"/>
        <lane id="c_2" index="2" speed="13.89" length="486.40" shape="1098.40,900.00 1098.40,413.60"/>
    </edge>
    <edge id="d" from="1" to="4" priority="-1">
        <lane id="d_0" index="0" speed="13.89" length="486.40" shape="1108.00,413.60 1108.00,900.00"/>
        <lane id="d_1" index="1" speed="13.89" length="486.40" shape="1104.80,413.60 1104.80,900.00"/>
        <lane id="d_2" index="2" speed="13.89" length="486.40" shape="1101.60,413.60 1101.60,900.00"/>
    </edge>
    <edge id="e" from="2" to="1" priority="-1">
        <lane id="e_0" index="0" speed="13.89" length="472.80" shape="1586.40,408.00 1113.60,408.00"/>
        <lane id="e_1" index="1" speed="13.89" length="472.80" shape="1586.40,404.80 1113.60,404.80"/>
        <lane id="e_2" index="2" speed="13.89" length="472.80" shape="1586.40,401.60 1113.60,401.60"/>
    </edge>
    <edge id="f" from="1" to="2" priority="-1">
        <lane id="f_0" index="0" speed="13.89" length="472.80" shape="1113.60,392.00 1586.40,392.00"/>
        <lane id="f_1" index="1" speed="13.89" length="472.80" shape="1113.60,395.20 1586.40,395.20"/>
        <lane id="f_2" index="2" speed="13.89" length="472.80" shape="1113.60,398.40 1586.40,398.40"/>
    </edge>
    <edge id="g" from="5" to="1" priority="-1">
        <lane id="g_0" index="0" speed="13.89" length="386.40" shape="1108.00,0.00 1108.00,386.40"/>
        <lane id="g_1" index="1" speed="13.89" length="386.40" shape="1104.80,0.00 1104.80,386.40"/>
        <lane id="g_2" index="2" speed="13.89" length="386.40" shape="1101.60,0.00 1101.60,386.40"/>
    </edge>
    <edge id="gneE16" from="2" to="7" priority="-1">
        <lane id="gneE16_0" index="0" speed="13.89" length="386.40" shape="1592.00,386.40 1592.00,0.00"/>
        <lane id="gneE16_1" index="1" speed="13.89" length="386.40" shape="1595.20,386.40 1595.20,0.00"/>
        <lane id="gneE16_2" index="2" speed="13.89" length="386.40" shape="1598.40,386.40 1598.40,0.00"/>
    </edge>
    <edge id="h" from="1" to="5" priority="-1">
        <lane id="h_0" index="0" speed="13.89" length="386.40" shape="1092.00,386.40 1092.00,0.00"/>
        <lane id="h_1" index="1" speed="13.89" length="386.40" shape="1095.20,386.40 1095.20,0.00"/>
        <lane id="h_2" index="2" speed="13.89" length="386.40" shape="1098.40,386.40 1098.40,0.00"/>
    </edge>
    <edge id="i" from="6" to="2" priority="-1">
        <lane id="i_0" index="0" speed="13.89" length="486.40" shape="1592.00,900.00 1592.00,413.60"/>
        <lane id="i_1" index="1" speed="13.89" length="486.40" shape="1595.20,900.00 1595.20,413.60"/>
        <lane id="i_2" index="2" speed="13.89" length="486.40" shape="1598.40,900.00 1598.40,413.60"/>
    </edge>
    <edge id="j" from="2" to="6" priority="-1">
        <lane id="j_0" index="0" speed="13.89" length="486.40" shape="1608.00,413.60 1608.00,900.00"/>
        <lane id="j_1" index="1" speed="13.89" length="486.40" shape="1604.80,413.60 1604.80,900.00"/>
        <lane id="j_2" index="2" speed="13.89" length="486.40" shape="1601.60,413.60 1601.60,900.00"/>
    </edge>
    <edge id="k" from="gneJ21" to="2" priority="-1">
        <lane id="k_0" index="0" speed="13.89" length="486.40" shape="2100.00,408.00 1613.60,408.00"/>
        <lane id="k_1" index="1" speed="13.89" length="486.40" shape="2100.00,404.80 1613.60,404.80"/>
        <lane id="k_2" index="2" speed="13.89" length="486.40" shape="2100.00,401.60 1613.60,401.60"/>
    </edge>
    <edge id="l" from="2" to="gneJ21" priority="-1">
        <lane id="l_0" index="0" speed="13.89" length="486.40" shape="1613.60,392.00 2100.00,392.00"/>
        <lane id="l_1" index="1" speed="13.89" length="486.40" shape="1613.60,395.20 2100.00,395.20"/>
        <lane id="l_2" index="2" speed="13.89" length="486.40" shape="1613.60,398.40 2100.00,398.40"/>
    </edge>
    <edge id="m" from="7" to="2" priority="-1">
        <lane id="m_0" index="0" speed="13.89" length="386.40" shape="1608.00,0.00 1608.00,386.40"/>
        <lane id="m_1" index="1" speed="13.89" length="386.40" shape="1604.80,0.00 1604.80,386.40"/>
        <lane id="m_2" index="2" speed="13.89" length="386.40" shape="1601.60,0.00 1601.60,386.40"/>
    </edge>

    <tlLogic id="gneJ15" type="static" programID="0" offset="0">
        <phase duration="31" state="GGggrrrrGGggrrrr"/>
        <phase duration="4"  state="yyggrrrryyggrrrr"/>
        <phase duration="6"  state="rrGGrrrrrrGGrrrr"/>
        <phase duration="4"  state="rryyrrrrrryyrrrr"/>
        <phase duration="31" state="rrrrGGggrrrrGGgg"/>
        <phase duration="4"  state="rrrryyggrrrryygg"/>
        <phase duration="6"  state="rrrrrrGGrrrrrrGG"/>
        <phase duration="4"  state="rrrrrryyrrrrrryy"/>
    </tlLogic>
    <tlLogic id="gneJ15" type="static" programID="1" offset="0">
        <phase duration="31" state="GGggrrrrGGggrrrr"/>
        <phase duration="4"  state="yyggrrrryyggrrrr"/>
        <phase duration="6"  state="rrGGrrrrrrGGrrrr"/>
        <phase duration="4"  state="rryyrrrrrryyrrrr"/>
        <phase duration="31" state="rrrrGGggrrrrGGgg"/>
        <phase duration="4"  state="rrrryyggrrrryygg"/>
        <phase duration="6"  state="rrrrrrGGrrrrrrGG"/>
        <phase duration="4"  state="rrrrrryyrrrrrryy"/>
    </tlLogic>
    <tlLogic id="gneJ18" type="static" programID="0" offset="0">
        <phase duration="31" state="GGggrrrrGGggrrrr"/>
        <phase duration="4"  state="yyggrrrryyggrrrr"/>
        <phase duration="6"  state="rrGGrrrrrrGGrrrr"/>
        <phase duration="4"  state="rryyrrrrrryyrrrr"/>
        <phase duration="31" state="rrrrGGggrrrrGGgg"/>
        <phase duration="4"  state="rrrryyggrrrryygg"/>
        <phase duration="6"  state="rrrrrrGGrrrrrrGG"/>
        <phase duration="4"  state="rrrrrryyrrrrrryy"/>
    </tlLogic>

    <junction id="0" type="dead_end" x="600.00" y="400.00" incLanes="b_0 b_1 b_2" intLanes="" shape="600.00,400.00 600.00,409.60 600.00,400.00"/>
    <junction id="1" type="traffic_light" x="1100.00" y="400.00" incLanes="c_0 c_1 c_2 e_0 e_1 e_2 g_0 g_1 g_2 a_0 a_1 a_2" intLanes=":1_0_0 :1_1_0 :1_16_0 :1_17_0 :1_4_0 :1_5_0 :1_18_0 :1_19_0 :1_8_0 :1_9_0 :1_20_0 :1_21_0 :1_12_0 :1_13_0 :1_22_0 :1_23_0" shape="1090.40,413.60 1109.60,413.60 1110.04,411.38 1110.60,410.60 1111.38,410.04 1112.38,409.71 1113.60,409.60 1113.60,390.40 1111.38,389.96 1110.60,389.40 1110.04,388.62 1109.71,387.62 1109.60,386.40 1090.40,386.40 1089.96,388.62 1089.40,389.40 1088.62,389.96 1087.62,390.29 1086.40,390.40 1086.40,409.60 1088.62,410.04 1089.40,410.60 1089.96,411.38 1090.29,412.38">
        <request index="0"  response="0000000000000000" foes="0000000000000000" cont="0"/>
        <request index="1"  response="0100000000000000" foes="0110010000100000" cont="0"/>
        <request index="2"  response="0100001001000000" foes="0100001011100000" cont="1"/>
        <request index="3"  response="0100000000000000" foes="0100000000000000" cont="1"/>
        <request index="4"  response="0000000000000000" foes="0000000000000000" cont="0"/>
        <request index="5"  response="0000001000000110" foes="0100001000000110" cont="0"/>
        <request index="6"  response="0010011000000100" foes="0010111000000100" cont="1"/>
        <request index="7"  response="0000000000000100" foes="0000000000000100" cont="1"/>
        <request index="8"  response="0000000000000000" foes="0000000000000000" cont="0"/>
        <request index="9"  response="0000000001000000" foes="0010000001100100" cont="0"/>
        <request index="10" response="0100000001000010" foes="1110000001000010" cont="1"/>
        <request index="11" response="0000000001000000" foes="0000000001000000" cont="1"/>
        <request index="12" response="0000000000000000" foes="0000000000000000" cont="0"/>
        <request index="13" response="0000011000000010" foes="0000011001000010" cont="0"/>
        <request index="14" response="0000010000100110" foes="0000010000101110" cont="1"/>
        <request index="15" response="0000010000000000" foes="0000010000000000" cont="1"/>
    </junction>
    <junction id="2" type="traffic_light" x="1600.00" y="400.00" incLanes="i_0 i_1 i_2 k_0 k_1 k_2 m_0 m_1 m_2 f_0 f_1 f_2" intLanes=":2_0_0 :2_1_0 :2_16_0 :2_17_0 :2_4_0 :2_5_0 :2_18_0 :2_19_0 :2_8_0 :2_9_0 :2_20_0 :2_21_0 :2_12_0 :2_13_0 :2_22_0 :2_23_0" shape="1590.40,413.60 1609.60,413.60 1610.04,411.38 1610.60,410.60 1611.38,410.04 1612.38,409.71 1613.60,409.60 1613.60,390.40 1611.38,389.96 1610.60,389.40 1610.04,388.62 1609.71,387.62 1609.60,386.40 1590.40,386.40 1589.96,388.62 1589.40,389.40 1588.62,389.96 1587.62,390.29 1586.40,390.40 1586.40,409.60 1588.62,410.04 1589.40,410.60 1589.96,411.38 1590.29,412.38">
        <request index="0"  response="0000000000000000" foes="0000000000000000" cont="0"/>
        <request index="1"  response="0100000000000000" foes="0110010000100000" cont="0"/>
        <request index="2"  response="0100001001000000" foes="0100001011100000" cont="1"/>
        <request index="3"  response="0100000000000000" foes="0100000000000000" cont="1"/>
        <request index="4"  response="0000000000000000" foes="0000000000000000" cont="0"/>
        <request index="5"  response="0000001000000110" foes="0100001000000110" cont="0"/>
        <request index="6"  response="0010011000000100" foes="0010111000000100" cont="1"/>
        <request index="7"  response="0000000000000100" foes="0000000000000100" cont="1"/>
        <request index="8"  response="0000000000000000" foes="0000000000000000" cont="0"/>
        <request index="9"  response="0000000001000000" foes="0010000001100100" cont="0"/>
        <request index="10" response="0100000001000010" foes="1110000001000010" cont="1"/>
        <request index="11" response="0000000001000000" foes="0000000001000000" cont="1"/>
        <request index="12" response="0000000000000000" foes="0000000000000000" cont="0"/>
        <request index="13" response="0000011000000010" foes="0000011001000010" cont="0"/>
        <request index="14" response="0000010000100110" foes="0000010000101110" cont="1"/>
        <request index="15" response="0000010000000000" foes="0000010000000000" cont="1"/>
    </junction>
    <junction id="4" type="dead_end" x="1100.00" y="900.00" incLanes="d_0 d_1 d_2" intLanes="" shape="1100.00,900.00 1109.60,900.00 1100.00,900.00"/>
    <junction id="5" type="dead_end" x="1100.00" y="0.00" incLanes="h_0 h_1 h_2" intLanes="" shape="1100.00,0.00 1090.40,0.00 1100.00,0.00"/>
    <junction id="6" type="dead_end" x="1600.00" y="900.00" incLanes="j_0 j_1 j_2" intLanes="" shape="1600.00,900.00 1609.60,900.00 1600.00,900.00"/>
    <junction id="7" type="dead_end" x="1600.00" y="0.00" incLanes="gneE16_0 gneE16_1 gneE16_2" intLanes="" shape="1600.00,0.00 1590.40,0.00 1600.00,0.00"/>
    <junction id="gneJ21" type="dead_end" x="2100.00" y="400.00" incLanes="l_0 l_1 l_2" intLanes="" shape="2100.00,400.00 2100.00,390.40 2100.00,400.00"/>

    <junction id=":1_16_0" type="internal" x="1103.20" y="401.60" incLanes=":1_2_0 g_0 g_1" intLanes=":1_5_0 :1_6_0 :1_7_0 :1_8_0 :1_9_0 :1_13_0 :1_14_0"/>
    <junction id=":1_17_0" type="internal" x="1100.00" y="412.00" incLanes=":1_3_0 a_2 e_0 g_1" intLanes=":1_4_0 :1_9_0 :1_14_0"/>
    <junction id=":1_18_0" type="internal" x="1101.60" y="396.80" incLanes=":1_6_0 a_0 a_1" intLanes=":1_1_0 :1_2_0 :1_9_0 :1_10_0 :1_11_0 :1_12_0 :1_13_0"/>
    <junction id=":1_19_0" type="internal" x="1112.00" y="400.00" incLanes=":1_7_0 a_1 c_2 g_0" intLanes=":1_2_0 :1_8_0 :1_13_0"/>
    <junction id=":1_20_0" type="internal" x="1096.80" y="398.40" incLanes=":1_10_0 c_0 c_1" intLanes=":1_0_0 :1_1_0 :1_5_0 :1_6_0 :1_13_0 :1_14_0 :1_15_0"/>
    <junction id=":1_21_0" type="internal" x="1100.00" y="388.00" incLanes=":1_11_0 a_0 c_1 e_2" intLanes=":1_1_0 :1_6_0 :1_12_0"/>
    <junction id=":1_22_0" type="internal" x="1098.40" y="403.20" incLanes=":1_14_0 e_0 e_1" intLanes=":1_1_0 :1_2_0 :1_3_0 :1_4_0 :1_5_0 :1_9_0 :1_10_0"/>
    <junction id=":1_23_0" type="internal" x="1088.00" y="400.00" incLanes=":1_15_0 c_0 e_1 g_2" intLanes=":1_0_0 :1_5_0 :1_10_0"/>
    <junction id=":2_16_0" type="internal" x="1603.20" y="401.60" incLanes=":2_2_0 m_0 m_1" intLanes=":2_5_0 :2_6_0 :2_7_0 :2_8_0 :2_9_0 :2_13_0 :2_14_0"/>
    <junction id=":2_17_0" type="internal" x="1600.00" y="412.00" incLanes=":2_3_0 f_2 k_0 m_1" intLanes=":2_4_0 :2_9_0 :2_14_0"/>
    <junction id=":2_18_0" type="internal" x="1601.60" y="396.80" incLanes=":2_6_0 f_0 f_1" intLanes=":2_1_0 :2_2_0 :2_9_0 :2_10_0 :2_11_0 :2_12_0 :2_13_0"/>
    <junction id=":2_19_0" type="internal" x="1612.00" y="400.00" incLanes=":2_7_0 f_1 i_2 m_0" intLanes=":2_2_0 :2_8_0 :2_13_0"/>
    <junction id=":2_20_0" type="internal" x="1596.80" y="398.40" incLanes=":2_10_0 i_0 i_1" intLanes=":2_0_0 :2_1_0 :2_5_0 :2_6_0 :2_13_0 :2_14_0 :2_15_0"/>
    <junction id=":2_21_0" type="internal" x="1600.00" y="388.00" incLanes=":2_11_0 f_0 i_1 k_2" intLanes=":2_1_0 :2_6_0 :2_12_0"/>
    <junction id=":2_22_0" type="internal" x="1598.40" y="403.20" incLanes=":2_14_0 k_0 k_1" intLanes=":2_1_0 :2_2_0 :2_3_0 :2_4_0 :2_5_0 :2_9_0 :2_10_0"/>
    <junction id=":2_23_0" type="internal" x="1588.00" y="400.00" incLanes=":2_15_0 i_0 k_1 m_2" intLanes=":2_0_0 :2_5_0 :2_10_0"/>

    <connection from="a" to="h" fromLane="0" toLane="0" via=":1_12_0" tl="gneJ15" linkIndex="12" dir="r" state="O"/>
    <connection from="a" to="f" fromLane="1" toLane="1" via=":1_13_0" tl="gneJ15" linkIndex="13" dir="s" state="o"/>
    <connection from="a" to="d" fromLane="2" toLane="2" via=":1_14_0" tl="gneJ15" linkIndex="14" dir="l" state="o"/>
    <connection from="a" to="b" fromLane="2" toLane="2" via=":1_15_0" tl="gneJ15" linkIndex="15" dir="t" state="o"/>
    <connection from="c" to="b" fromLane="0" toLane="0" via=":1_0_0" tl="gneJ15" linkIndex="0" dir="r" state="O"/>
    <connection from="c" to="h" fromLane="1" toLane="1" via=":1_1_0" tl="gneJ15" linkIndex="1" dir="s" state="O"/>
    <connection from="c" to="f" fromLane="2" toLane="2" via=":1_2_0" tl="gneJ15" linkIndex="2" dir="l" state="o"/>
    <connection from="c" to="d" fromLane="2" toLane="2" via=":1_3_0" tl="gneJ15" linkIndex="3" dir="t" state="o"/>
    <connection from="e" to="d" fromLane="0" toLane="0" via=":1_4_0" tl="gneJ15" linkIndex="4" dir="r" state="O"/>
    <connection from="e" to="b" fromLane="1" toLane="1" via=":1_5_0" tl="gneJ15" linkIndex="5" dir="s" state="o"/>
    <connection from="e" to="h" fromLane="2" toLane="2" via=":1_6_0" tl="gneJ15" linkIndex="6" dir="l" state="o"/>
    <connection from="e" to="f" fromLane="2" toLane="2" via=":1_7_0" tl="gneJ15" linkIndex="7" dir="t" state="o"/>
    <connection from="f" to="gneE16" fromLane="0" toLane="0" via=":2_12_0" tl="gneJ18" linkIndex="12" dir="r" state="O"/>
    <connection from="f" to="l" fromLane="1" toLane="1" via=":2_13_0" tl="gneJ18" linkIndex="13" dir="s" state="o"/>
    <connection from="f" to="j" fromLane="2" toLane="2" via=":2_14_0" tl="gneJ18" linkIndex="14" dir="l" state="o"/>
    <connection from="f" to="e" fromLane="2" toLane="2" via=":2_15_0" tl="gneJ18" linkIndex="15" dir="t" state="o"/>
    <connection from="g" to="f" fromLane="0" toLane="0" via=":1_8_0" tl="gneJ15" linkIndex="8" dir="r" state="O"/>
    <connection from="g" to="d" fromLane="1" toLane="1" via=":1_9_0" tl="gneJ15" linkIndex="9" dir="s" state="O"/>
    <connection from="g" to="b" fromLane="2" toLane="2" via=":1_10_0" tl="gneJ15" linkIndex="10" dir="l" state="o"/>
    <connection from="g" to="h" fromLane="2" toLane="2" via=":1_11_0" tl="gneJ15" linkIndex="11" dir="t" state="o"/>
    <connection from="i" to="e" fromLane="0" toLane="0" via=":2_0_0" tl="gneJ18" linkIndex="0" dir="r" state="O"/>
    <connection from="i" to="gneE16" fromLane="1" toLane="1" via=":2_1_0" tl="gneJ18" linkIndex="1" dir="s" state="O"/>
    <connection from="i" to="l" fromLane="2" toLane="2" via=":2_2_0" tl="gneJ18" linkIndex="2" dir="l" state="o"/>
    <connection from="i" to="j" fromLane="2" toLane="2" via=":2_3_0" tl="gneJ18" linkIndex="3" dir="t" state="o"/>
    <connection from="k" to="j" fromLane="0" toLane="0" via=":2_4_0" tl="gneJ18" linkIndex="4" dir="r" state="O"/>
    <connection from="k" to="e" fromLane="1" toLane="1" via=":2_5_0" tl="gneJ18" linkIndex="5" dir="s" state="o"/>
    <connection from="k" to="gneE16" fromLane="2" toLane="2" via=":2_6_0" tl="gneJ18" linkIndex="6" dir="l" state="o"/>
    <connection from="k" to="l" fromLane="2" toLane="2" via=":2_7_0" tl="gneJ18" linkIndex="7" dir="t" state="o"/>
    <connection from="m" to="l" fromLane="0" toLane="0" via=":2_8_0" tl="gneJ18" linkIndex="8" dir="r" state="O"/>
    <connection from="m" to="j" fromLane="1" toLane="1" via=":2_9_0" tl="gneJ18" linkIndex="9" dir="s" state="O"/>
    <connection from="m" to="e" fromLane="2" toLane="2" via=":2_10_0" tl="gneJ18" linkIndex="10" dir="l" state="o"/>
    <connection from="m" to="gneE16" fromLane="2" toLane="2" via=":2_11_0" tl="gneJ18" linkIndex="11" dir="t" state="o"/>

    <connection from=":1_0" to="b" fromLane="0" toLane="0" dir="r" state="M"/>
    <connection from=":1_1" to="h" fromLane="0" toLane="1" dir="s" state="M"/>
    <connection from=":1_2" to="f" fromLane="0" toLane="2" via=":1_16_0" dir="l" state="m"/>
    <connection from=":1_16" to="f" fromLane="0" toLane="2" dir="l" state="M"/>
    <connection from=":1_3" to="d" fromLane="0" toLane="2" via=":1_17_0" dir="t" state="m"/>
    <connection from=":1_17" to="d" fromLane="0" toLane="2" dir="t" state="M"/>
    <connection from=":1_4" to="d" fromLane="0" toLane="0" dir="r" state="M"/>
    <connection from=":1_5" to="b" fromLane="0" toLane="1" dir="s" state="M"/>
    <connection from=":1_6" to="h" fromLane="0" toLane="2" via=":1_18_0" dir="l" state="m"/>
    <connection from=":1_18" to="h" fromLane="0" toLane="2" dir="l" state="M"/>
    <connection from=":1_7" to="f" fromLane="0" toLane="2" via=":1_19_0" dir="t" state="m"/>
    <connection from=":1_19" to="f" fromLane="0" toLane="2" dir="t" state="M"/>
    <connection from=":1_8" to="f" fromLane="0" toLane="0" dir="r" state="M"/>
    <connection from=":1_9" to="d" fromLane="0" toLane="1" dir="s" state="M"/>
    <connection from=":1_10" to="b" fromLane="0" toLane="2" via=":1_20_0" dir="l" state="m"/>
    <connection from=":1_20" to="b" fromLane="0" toLane="2" dir="l" state="M"/>
    <connection from=":1_11" to="h" fromLane="0" toLane="2" via=":1_21_0" dir="t" state="m"/>
    <connection from=":1_21" to="h" fromLane="0" toLane="2" dir="t" state="M"/>
    <connection from=":1_12" to="h" fromLane="0" toLane="0" dir="r" state="M"/>
    <connection from=":1_13" to="f" fromLane="0" toLane="1" dir="s" state="M"/>